[TITLE]
bluebarn

[JUNCTIONS]
;ID              	Elev        	Demand      c	Pattern         
 0              	43.3489           	0           	                	;
 1              	43.274           	0           	                	;
 2              	58.8825           	0           	                	;
 3              	61.2612           	0           	                	;
 4              	57.5598           	0           	                	;
 5              	58.4904           	0           	                	;
 6              	58.6273           	0           	                	;
 7              	0           	0           	                	;
 8              	58.7771           	0           	                	;
 9              	59.4272           	0           	                	;
 10              	56.9147           	0           	                	;
 11              	58.2568           	0           	                	;
 12              	57.8672           	0           	                	;
 13              	51.8275           	0           	                	;
 14              	0           	0           	                	;
 15              	51.8131           	0           	                	;
 16              	51.0251           	0           	                	;
 17              	51.6995           	0           	                	;
 18              	0           	0           	                	;
 19              	55.8508           	0           	                	;
 20              	55.2631           	0           	                	;
 21              	55.5594           	0           	                	;
 22              	55.7564           	0           	                	;
 23              	56.3276           	0           	                	;
 24              	56.6425           	0           	                	;
 25              	55.0462           	0           	                	;
 26              	55.1497           	0           	                	;
 27              	63.7629           	0           	                	;
 28              	51.2415           	0           	                	;
 29              	0           	0           	                	;
 30              	0           	0           	                	;
 31              	0           	0           	                	;
 32              	0           	0           	                	;
 33              	0           	0           	                	;
 34              	0           	0           	                	;
 37              	0           	0           	                	;
 38              	54.5015           	0           	                	;
 39              	53.7526           	0           	                	;
 40              	0           	0           	                	;
 41              	52.8013           	0           	                	;
 42              	55.528           	0           	                	;
 43              	55.303           	0           	                	;
 44              	45.3902           	0           	                	;
 45              	0           	0           	                	;
 46              	45.1274           	0           	                	;
 47              	0           	0           	                	;
 50              	54.3191           	0           	                	;
 51              	45.3733           	0           	                	;
 52              	0           	0           	                	;
 53              	0           	0           	                	;
 54              	0           	0           	                	;
 55              	0           	0           	                	;
 56              	0           	0           	                	;
 57              	0           	0           	                	;
 58              	0           	0           	                	;
 59              	0           	0           	                	;
 60              	0           	0           	                	;
 61              	0           	0           	                	;
 62              	51.5151           	0           	                	;
 63              	0           	0           	                	;
 64              	0           	0           	                	;
 65              	0           	0           	                	;
 66              	58.8294           	0           	                	;
 67              	61.2632           	0           	                	;
 68              	58.2188           	0           	                	;
 69              	59.9347           	0           	                	;
 70              	55.5893           	0           	                	;
 71              	55.6928           	0           	                	;
 72              	57.7062           	0           	                	;
 73              	57.822           	0           	                	;
 74              	57.3079           	0           	                	;
 75              	57.2815           	0           	                	;
 76              	57.4796           	0           	                	;
 77              	58.3075           	0           	                	;
 78              	59.6731           	0           	                	;
 79              	51.78           	0           	                	;
 80              	0           	0           	                	;
 81              	0           	0           	                	;
 82              	55.7663           	0           	                	;
 83              	55.6308           	0           	                	;
 84              	57.4356           	0           	                	;
 85              	58.209           	0           	                	;
 86              	0           	0           	                	;
 87              	0           	0           	                	;
 88              	60.9826           	0           	                	;
 89              	0           	0           	                	;
 90              	0           	0           	                	;
 91              	0           	0           	                	;
 92              	60.7616           	0           	                	;
 93              	0           	0           	                	;
 98              	51.9143           	0           	                	;
 99              	37.6637           	0           	                	;
 100              	0           	0           	                	;
 101              	0           	0           	                	;
 102              	0           	0           	                	;
 103              	0           	0           	                	;
 104              	33.8925           	0           	                	;
 105              	0           	0           	                	;
 106              	0           	0           	                	;
 107              	42.0873           	0           	                	;
 108              	0           	0           	                	;
 109              	40.5464           	0           	                	;
 110              	0           	0           	                	;
 111              	0           	0           	                	;
 112              	37.39           	0           	                	;
 113              	0           	0           	                	;
 114              	39.9128           	0           	                	;
 115              	49.5677           	0           	                	;
 116              	0           	0           	                	;
 117              	0           	0           	                	;
 118              	0           	0           	                	;
 119              	0           	0           	                	;
 120              	53.7329           	0           	                	;
 121              	58.4798           	0           	                	;
 122              	0           	0           	                	;
 123              	0           	0           	                	;
 124              	0           	0           	                	;
 125              	0           	0           	                	;
 128              	44.6314           	0           	                	;
 129              	0           	0           	                	;
 130              	0           	0           	                	;
 131              	0           	0           	                	;
 132              	47.3319           	0           	                	;
 133              	0           	0           	                	;
 134              	0           	0           	                	;
 135              	0           	0           	                	;
 136              	53.6904           	0           	                	;
 137              	62.2054           	0           	                	;
 138              	61.5976           	0           	                	;
 139              	0           	0           	                	;
 140              	58.7399           	0           	                	;
 141              	59.606           	0           	                	;
 142              	48.9939           	0           	                	;
 143              	0           	0           	                	;
 144              	0           	0           	                	;
 145              	0           	0           	                	;
 146              	62.3578           	0           	                	;
 147              	62.3714           	0           	                	;
 148              	61.0485           	0           	                	;
 149              	49.1522           	0           	                	;
 150              	45.2049           	0           	                	;
 151              	37.8061           	0           	                	;
 152              	0           	0           	                	;
 153              	42.3616           	0           	                	;
 154              	47.872           	0           	                	;
 155              	47.8696           	0           	                	;
 156              	49.2799           	0           	                	;
 157              	0           	0           	                	;
 158              	49.7701           	0           	                	;
 159              	52.2417           	0           	                	;
 163              	0           	0           	                	;
 164              	0           	0           	                	;
 165              	0           	0           	                	;
 166              	0           	0           	                	;
 167              	0           	0           	                	;
 168              	37.742           	0           	                	;
 174              	0           	0           	                	;
 175              	40.867           	0           	                	;
 176              	0           	0           	                	;
 177              	59.1803           	0           	                	;
 178              	0           	0           	                	;
 179              	50.3424           	0           	                	;
 180              	39.7864           	0           	                	;
 181              	0           	0           	                	;
 182              	54.0379           	0           	                	;
 183              	54.4834           	0           	                	;
 184              	40.2129           	0           	                	;
 185              	0           	0           	                	;
 186              	0           	0           	                	;
 187              	40.3081           	0           	                	;
 188              	37.3282           	0           	                	;
 189              	42.3772           	0           	                	;
 190              	0           	0           	                	;
 191              	0           	0           	                	;
 192              	0           	0           	                	;
 193              	40.4384           	0           	                	;
 194              	0           	0           	                	;
 195              	0           	0           	                	;
 196              	0           	0           	                	;
 197              	0           	0           	                	;
 198              	0           	0           	                	;
 199              	53.771           	0           	                	;
 200              	0           	0           	                	;
 201              	0           	0           	                	;
 202              	61.2361           	0           	                	;
 203              	0           	0           	                	;
 204              	0           	0           	                	;
 205              	0           	0           	                	;
 206              	0           	0           	                	;
 207              	39.6617           	0           	                	;
 208              	45.1714           	0           	                	;
 209              	45.1701           	0           	                	;
 210              	42.7964           	0           	                	;
 211              	42.6886           	0           	                	;
 212              	0           	0           	                	;
 213              	0           	0           	                	;
 214              	0           	0           	                	;
 215              	0           	0           	                	;
 216              	0           	0           	                	;
 217              	0           	0           	                	;
 218              	0           	0           	                	;
 219              	50.2141           	0           	                	;
 220              	50.214           	0           	                	;
 221              	0           	0           	                	;
 222              	0           	0           	                	;
 223              	0           	0           	                	;
 224              	0           	0           	                	;
 225              	0           	0           	                	;
 226              	0           	0           	                	;
 227              	0           	0           	                	;
 228              	0           	0           	                	;
 229              	0           	0           	                	;
 230              	0           	0           	                	;
 231              	0           	0           	                	;
 233              	57.3568           	0           	                	;
 234              	55.4873           	0           	                	;
 235              	0           	0           	                	;
 236              	0           	0           	                	;
 237              	0           	0           	                	;
 238              	46.1628           	0           	                	;
 239              	45.7654           	0           	                	;
 240              	0           	0           	                	;
 241              	0           	0           	                	;
 242              	0           	0           	                	;
 243              	0           	0           	                	;
 244              	0           	0           	                	;
 245              	0           	0           	                	;
 246              	0           	0           	                	;
 247              	0           	0           	                	;
 248              	0           	0           	                	;
 249              	0           	0           	                	;
 250              	0           	0           	                	;
 251              	0           	0           	                	;
 252              	58.5511           	0           	                	;
 253              	60.76           	0           	                	;
 254              	0           	0           	                	;
 255              	62.3586           	0           	                	;
 256              	0           	0           	                	;
 257              	42.1282           	0           	                	;
 258              	0           	0           	                	;
 259              	49.2495           	0           	                	;
 260              	0           	0           	                	;
 261              	61.2359           	0           	                	;
 262              	59.606           	0           	                	;
 263              	0           	0           	                	;
 264              	0           	0           	                	;
 265              	61.6201           	0           	                	;
 266              	51.8323           	0           	                	;
 267              	55.7975           	0           	                	;
 268              	0           	0           	                	;
 269              	0           	0           	                	;
 270              	0           	0           	                	;
 271              	0           	0           	                	;
 272              	0           	0           	                	;
 273              	0           	0           	                	;
 274              	0           	0           	                	;
 275              	0           	0           	                	;
 276              	0           	0           	                	;
 277              	0           	0           	                	;
 278              	60.359           	0           	                	;
 279              	56.8378           	0           	                	;
 280              	56.4778           	0           	                	;
 281              	53.8977           	0           	                	;
 282              	56.4378           	0           	                	;

[PIPES]
;ID              	Node1           	Node2           	Length      	Diameter    	Roughness   	MinorLoss   	Status
 0              	0              	1              	12.013          	100          	100         	0           	Open  	;
 1              	2              	3              	99.3883          	100          	100         	0           	Open  	;
 2              	4              	5              	61.9953          	100          	100         	0           	Open  	;
 3              	6              	7              	0.0978          	100          	100         	0           	Open  	;
 4              	7              	8              	15.0237          	100          	100         	0           	Open  	;
 5              	8              	9              	40.3452          	100          	100         	0           	Open  	;
 6              	9              	9              	0          	100          	100         	0           	Open  	;
 7              	10              	11              	34.1028          	100          	100         	0           	Open  	;
 8              	9              	12              	86.8212          	100          	100         	0           	Open  	;
 9              	13              	14              	7.1376          	100          	100         	0           	Open  	;
 10              	15              	16              	165.496          	100          	100         	0           	Open  	;
 11              	17              	18              	11.9761          	100          	100         	0           	Open  	;
 12              	19              	20              	14.9596          	100          	100         	0           	Open  	;
 13              	21              	22              	11.9971          	100          	100         	0           	Open  	;
 14              	21              	19              	47.4202          	100          	100         	0           	Open  	;
 15              	19              	23              	36.3411          	100          	100         	0           	Open  	;
 16              	23              	24              	11.1347          	100          	100         	0           	Open  	;
 17              	25              	26              	12.1131          	100          	100         	0           	Open  	;
 18              	26              	27              	209.3662          	100          	100         	0           	Open  	;
 19              	28              	29              	107.1836          	100          	100         	0           	Open  	;
 20              	29              	30              	34.1054          	100          	100         	0           	Open  	;
 21              	30              	31              	43.8402          	100          	100         	0           	Open  	;
 22              	31              	32              	13.508          	100          	100         	0           	Open  	;
 23              	32              	33              	22.7813          	100          	100         	0           	Open  	;
 24              	33              	26              	30.0392          	100          	100         	0           	Open  	;
 25              	34              	37              	89.0386          	100          	100         	0           	Open  	;
 28              	38              	39              	64.0073          	100          	100         	0           	Open  	;
 29              	39              	40              	16.5357          	100          	100         	0           	Open  	;
 30              	40              	41              	17.6953          	100          	100         	0           	Open  	;
 31              	42              	43              	100.6281          	100          	100         	0           	Open  	;
 32              	44              	45              	16.1092          	100          	100         	0           	Open  	;
 33              	45              	46              	53.1659          	100          	100         	0           	Open  	;
 34              	47              	50              	223.2181          	100          	100         	0           	Open  	;
 37              	51              	52              	8.0202          	100          	100         	0           	Open  	;
 38              	52              	53              	44.3938          	100          	100         	0           	Open  	;
 39              	53              	54              	42.9638          	100          	100         	0           	Open  	;
 40              	54              	55              	35.1255          	100          	100         	0           	Open  	;
 41              	55              	56              	14.386          	100          	100         	0           	Open  	;
 42              	47              	57              	27.94          	100          	100         	0           	Open  	;
 43              	57              	58              	8.3194          	100          	100         	0           	Open  	;
 44              	58              	59              	46.8088          	100          	100         	0           	Open  	;
 45              	59              	60              	46.0557          	100          	100         	0           	Open  	;
 46              	60              	61              	37.4279          	100          	100         	0           	Open  	;
 47              	61              	62              	23.8363          	100          	100         	0           	Open  	;
 48              	63              	64              	9.036          	100          	100         	0           	Open  	;
 49              	3              	43              	203.6738          	100          	100         	0           	Open  	;
 50              	3              	65              	11.8054          	100          	100         	0           	Open  	;
 51              	66              	67              	99.3735          	100          	100         	0           	Open  	;
 52              	68              	69              	100.7609          	100          	100         	0           	Open  	;
 53              	70              	71              	100.6405          	100          	100         	0           	Open  	;
 54              	72              	73              	11.9496          	100          	100         	0           	Open  	;
 55              	74              	72              	100.708          	100          	100         	0           	Open  	;
 56              	75              	76              	100.6955          	100          	100         	0           	Open  	;
 57              	77              	78              	100.7657          	100          	100         	0           	Open  	;
 58              	79              	38              	64.1334          	100          	100         	0           	Open  	;
 59              	38              	80              	67.566          	100          	100         	0           	Open  	;
 60              	80              	81              	34.0641          	100          	100         	0           	Open  	;
 61              	82              	83              	11.235          	100          	100         	0           	Open  	;
 62              	84              	85              	52.2005          	100          	100         	0           	Open  	;
 63              	85              	86              	11.7998          	100          	100         	0           	Open  	;
 64              	86              	87              	43.1967          	100          	100         	0           	Open  	;
 65              	87              	88              	149.6814          	100          	100         	0           	Open  	;
 66              	21              	10              	26.6197          	100          	100         	0           	Open  	;
 67              	68              	89              	42.8473          	100          	100         	0           	Open  	;
 68              	89              	66              	9.3429          	100          	100         	0           	Open  	;
 69              	66              	63              	12.4276          	100          	100         	0           	Open  	;
 70              	63              	90              	56.9684          	100          	100         	0           	Open  	;
 71              	90              	91              	12.8051          	100          	100         	0           	Open  	;
 72              	91              	92              	54.0086          	100          	100         	0           	Open  	;
 73              	75              	74              	11.8          	100          	100         	0           	Open  	;
 74              	74              	77              	52.2          	100          	100         	0           	Open  	;
 75              	77              	68              	11.8292          	100          	100         	0           	Open  	;
 76              	93              	98              	241.9767          	100          	100         	0           	Open  	;
 81              	99              	100              	28.2935          	100          	100         	0           	Open  	;
 82              	100              	101              	18.7848          	100          	100         	0           	Open  	;
 83              	101              	102              	13.7697          	100          	100         	0           	Open  	;
 84              	102              	103              	22.5146          	100          	100         	0           	Open  	;
 85              	103              	104              	47.4534          	100          	100         	0           	Open  	;
 86              	104              	105              	66.3754          	100          	100         	0           	Open  	;
 87              	105              	106              	62.5927          	100          	100         	0           	Open  	;
 88              	107              	108              	124.1524          	100          	100         	0           	Open  	;
 89              	109              	110              	125.4601          	100          	100         	0           	Open  	;
 90              	111              	112              	110.1114          	100          	100         	0           	Open  	;
 91              	113              	114              	110.5057          	100          	100         	0           	Open  	;
 92              	115              	116              	33.145          	100          	100         	0           	Open  	;
 93              	116              	117              	80.4286          	100          	100         	0           	Open  	;
 94              	118              	119              	94.6462          	100          	100         	0           	Open  	;
 95              	119              	120              	32.8993          	100          	100         	0           	Open  	;
 96              	121              	122              	40.0865          	100          	100         	0           	Open  	;
 97              	122              	123              	64.2157          	100          	100         	0           	Open  	;
 98              	123              	124              	31.8475          	100          	100         	0           	Open  	;
 99              	125              	128              	233.871          	100          	100         	0           	Open  	;
 102              	1              	129              	25.7935          	100          	100         	0           	Open  	;
 103              	129              	130              	29.0498          	100          	100         	0           	Open  	;
 104              	130              	131              	29.0499          	100          	100         	0           	Open  	;
 105              	131              	132              	196.5816          	100          	100         	0           	Open  	;
 106              	5              	133              	20.3818          	100          	100         	0           	Open  	;
 107              	133              	134              	24.048          	100          	100         	0           	Open  	;
 108              	134              	135              	24.048          	100          	100         	0           	Open  	;
 109              	135              	136              	50.4772          	100          	100         	0           	Open  	;
 110              	137              	138              	62.9172          	100          	100         	0           	Open  	;
 111              	139              	140              	23.8159          	100          	100         	0           	Open  	;