[TITLE]
bluebarn

[JUNCTIONS]
;ID              	Elev        	Demand      c	Pattern         
 0              	0           	0           	                	;
 1              	0           	0           	                	;
 2              	0           	0           	                	;
 3              	0           	0           	                	;
 4              	0           	0           	                	;
 5              	0           	0           	                	;
 6              	0           	0           	                	;
 7              	0           	0           	                	;

[PIPES]
;ID              	Node1           	Node2           	Length      	Diameter    	Roughness   	MinorLoss   	Status
 0              	1              	0              	4.9897          	12          	100         	0           	Open  	;
 1              	2              	3              	4.1944          	12          	100         	0           	Open  	;
 2              	5              	4              	6.1739          	12          	100         	0           	Open  	;
 4              	0              	2              	1.1032          	12          	100         	0           	Open  	;
 5              	2              	4              	2.0325          	12          	100         	0           	Open  	;
 6              	4              	7              	3.8071          	12          	100         	0           	Open  	;
 7              	7              	6              	7.1329          	12          	100         	0           	Open  	;

[COORDINATES]
;Node            	X-Coord         	Y-Coord
 0              	5.6106              	6.1668
 1              	10.0008              	3.7954
 2              	4.8159              	5.4016
 3              	1.2257              	7.5704
 4              	3.3517              	3.9919
 5              	8.7807              	1.052
 6              	0.9559              	1.6851
 7              	6.0942              	6.6325

[END]
