[TITLE]
bluebarn

[JUNCTIONS]
;ID              	Elev        	Demand      c	Pattern         
 0              	0           	0           	                	;
 1              	0           	0           	                	;
 2              	0           	0           	                	;
 3              	0           	0           	                	;
 4              	0           	0           	                	;
 5              	0           	0           	                	;
 6              	0           	0           	                	;
 7              	0           	0           	                	;
 8              	0           	0           	                	;
 9              	0           	0           	                	;
 10              	0           	0           	                	;
 11              	0           	0           	                	;
 12              	0           	0           	                	;
 13              	0           	0           	                	;
 14              	0           	0           	                	;
 15              	0           	0           	                	;
 16              	0           	0           	                	;
 17              	0           	0           	                	;
 18              	0           	0           	                	;
 19              	0           	0           	                	;
 20              	0           	0           	                	;
 21              	0           	0           	                	;
 22              	0           	0           	                	;
 23              	0           	0           	                	;
 24              	0           	0           	                	;

[PIPES]
;ID              	Node1           	Node2           	Length      	Diameter    	Roughness   	MinorLoss   	Status
 0              	0              	1              	5.739766933254626          	12          	100         	0           	Open  	;
 1              	2              	3              	1.2997920947116217          	12          	100         	0           	Open  	;
 2              	4              	2              	3.999950275375778          	12          	100         	0           	Open  	;
 3              	5              	6              	12.519974566888548          	12          	100         	0           	Open  	;
 4              	7              	8              	2.2571192304582772          	12          	100         	0           	Open  	;
 5              	9              	10              	4.773700898411715          	12          	100         	0           	Open  	;
 6              	11              	12              	4.798179212559248          	12          	100         	0           	Open  	;
 7              	13              	14              	3.062574313996736          	12          	100         	0           	Open  	;
 8              	14              	15              	3.326768166751454          	12          	100         	0           	Open  	;
 9              	16              	17              	4.939824935317075          	12          	100         	0           	Open  	;
 10              	17              	18              	6.788245936363838          	12          	100         	0           	Open  	;
 11              	4              	19              	4.276792919243861          	12          	100         	0           	Open  	;
 12              	20              	21              	4.940621443077199          	12          	100         	0           	Open  	;
 13              	21              	22              	4.75878761704541          	12          	100         	0           	Open  	;
 14              	22              	23              	1.8779787921396613          	12          	100         	0           	Open  	;
 15              	23              	4              	4.223036662241143          	12          	100         	0           	Open  	;
 16              	4              	24              	3.0166745876832266          	12          	100         	0           	Open  	;

[COORDINATES]
;Node            	X-Coord         	Y-Coord
 0              	6.7063              	3.8337
 1              	6.3310              	9.5612
 2              	5.0168              	3.7837
 3              	3.7379              	4.0162
 4              	9.0150              	3.9021
 5              	5.2311              	0.6131
 6              	4.3866              	13.1045
 7              	1.6354              	5.1081
 8              	0.5370              	3.1362
 9              	2.6424              	2.0117
 10              	-1.5683              	4.2608
 11              	-0.2601              	6.5787
 12              	3.5309              	3.6375
 13              	3.3167              	7.6570
 14              	4.1113              	4.6993
 15              	2.5158              	1.7801
 16              	6.2994              	7.0299
 17              	11.1031              	8.1813
 18              	11.0562              	1.3932
 19              	13.1796              	2.9290
 20              	-2.5052              	2.6007
 21              	-0.0768              	6.9034
 22              	4.5688              	7.9351
 23              	6.2464              	7.0910
 24              	7.4312              	1.3346

[END]
