[TITLE]
bluebarn

[JUNCTIONS]
;ID              	Elev        	Demand      c	Pattern         

[PIPES]
;ID              	Node1           	Node2           	Length      	Diameter    	Roughness   	MinorLoss   	Status

[COORDINATES]
;Node            	X-Coord         	Y-Coord

[VERTICES]

[END]
