[TITLE]
prueba

[JUNCTIONS]
;ID              	Elev        	Demand      	Pattern         
 n1              	0           	0           	                	;
 n2              	0           	0           	                	;
 n3              	0           	0           	                	;
 n4              	0           	0           	                	;
 n5              	0           	0           	                	;
 n6              	0           	0           	                	;
 n7              	0           	0           	                	;
 n8              	0           	0           	                	;
 n9              	0           	0           	                	;
 n10             	0           	0           	                	;
 n11             	0           	0           	                	;
 n12             	0           	0           	                	;
 n13             	0           	0           	                	;
 n14             	0           	0           	                	;
 n15             	0           	0           	                	;
 n16             	0           	0           	                	;
 n17             	0           	0           	                	;
 n18             	0           	0           	                	;
 n19             	0           	0           	                	;
 n20             	0           	0           	                	;
 n21             	0           	0           	                	;
 n22             	0           	0           	                	;
 n23             	0           	0           	                	;
 n24             	0           	0           	                	;
 n25             	0           	0           	                	;
 n26             	0           	0           	                	;
 n27             	0           	0           	                	;
 n28             	0           	0           	                	;
 n29             	0           	0           	                	;
 n30             	0           	0           	                	;
 n31             	0           	0           	                	;
 n32             	0           	0           	                	;
 n33             	0           	0           	                	;
 n34             	0           	0           	                	;
 n35             	0           	0           	                	;
 n36             	0           	0           	                	;
 n37             	0           	0           	                	;
 n38             	0           	0           	                	;
 n39             	0           	0           	                	;
 n40             	0           	0           	                	;
 n41             	0           	0           	                	;
 n42             	0           	0           	                	;
 n43             	0           	0           	                	;
 n44             	0           	0           	                	;
 n45             	0           	0           	                	;
 n46             	0           	0           	                	;
 n47             	0           	0           	                	;
 n48             	0           	0           	                	;
 n49             	0           	0           	                	;
 n50             	0           	0           	                	;
 n51             	0           	0           	                	;
 n52             	0           	0           	                	;
 n53             	0           	0           	                	;
 n54             	0           	0           	                	;
 n55             	0           	0           	                	;
 n56             	0           	0           	                	;
 n57             	0           	0           	                	;
 n58             	0           	0           	                	;
 n59             	0           	0           	                	;
 n60             	0           	0           	                	;
 n61             	0           	0           	                	;
 n62             	0           	0           	                	;
 n63             	0           	0           	                	;
 n64             	0           	0           	                	;
 n65             	0           	0           	                	;
 n66             	0           	0           	                	;
 n67             	0           	0           	                	;
 n68             	0           	0           	                	;
 n69             	0           	0           	                	;
 n70             	0           	0           	                	;
 n71             	0           	0           	                	;
 n72             	0           	0           	                	;
 n73             	0           	0           	                	;
 n74             	0           	0           	                	;
 n75             	0           	0           	                	;
 n76             	0           	0           	                	;
 n77             	0           	0           	                	;
 n78             	0           	0           	                	;
 n79             	0           	0           	                	;
 n80             	0           	0           	                	;
 n81             	0           	0           	                	;
 n82             	0           	0           	                	;
 n83             	0           	0           	                	;
 n84             	0           	0           	                	;
 n85             	0           	0           	                	;
 n86             	0           	0           	                	;
 n87             	0           	0           	                	;
 n88             	0           	0           	                	;
 n89             	0           	0           	                	;
 n90             	0           	0           	                	;
 n91             	0           	0           	                	;
 n92             	0           	0           	                	;
 n93             	0           	0           	                	;
 n94             	0           	0           	                	;
 n95             	0           	0           	                	;
 n96             	0           	0           	                	;
 n97             	0           	0           	                	;
 n98             	0           	0           	                	;
 n99             	0           	0           	                	;
 n100            	0           	0           	                	;
 n101            	0           	0           	                	;
 n102            	0           	0           	                	;
 n103            	0           	0           	                	;
 n104            	0           	0           	                	;
 n105            	0           	0           	                	;
 n106            	0           	0           	                	;
 n107            	0           	0           	                	;
 n108            	0           	0           	                	;
 n109            	0           	0           	                	;
 n110            	0           	0           	                	;
 n111            	0           	0           	                	;
 n112            	0           	0           	                	;
 n113            	0           	0           	                	;
 n114            	0           	0           	                	;
 n115            	0           	0           	                	;
 n116            	0           	0           	                	;
 n117            	0           	0           	                	;
 n118            	0           	0           	                	;
 n119            	0           	0           	                	;
 n120            	0           	0           	                	;
 n121            	0           	0           	                	;
 n122            	0           	0           	                	;
 n123            	0           	0           	                	;
 n124            	0           	0           	                	;
 n125            	0           	0           	                	;
 n126            	0           	0           	                	;
 n127            	0           	0           	                	;
 n128            	0           	0           	                	;
 n129            	0           	0           	                	;
 n130            	0           	0           	                	;
 n131            	0           	0           	                	;
 n132            	0           	0           	                	;
 n133            	0           	0           	                	;
 n134            	0           	0           	                	;
 n135            	0           	0           	                	;
 n136            	0           	0           	                	;
 n137            	0           	0           	                	;
 n138            	0           	0           	                	;
 n139            	0           	0           	                	;
 n140            	0           	0           	                	;
 n141            	0           	0           	                	;
 n142            	0           	0           	                	;
 n143            	0           	0           	                	;
 n144            	0           	0           	                	;
 n145            	0           	0           	                	;
 n146            	0           	0           	                	;
 n147            	0           	0           	                	;
 n148            	0           	0           	                	;
 n149            	0           	0           	                	;
 n150            	0           	0           	                	;
 n151            	0           	0           	                	;
 n152            	0           	0           	                	;
 n153            	0           	0           	                	;
 n154            	0           	0           	                	;
 n155            	0           	0           	                	;
 n156            	0           	0           	                	;
 n157            	0           	0           	                	;
 n158            	0           	0           	                	;
 n159            	0           	0           	                	;
 n160            	0           	0           	                	;
 n161            	0           	0           	                	;
 n162            	50          	0           	                	;
 n163            	0           	0           	                	;
 n164            	0           	0           	                	;
 n165            	0           	0           	                	;
 n166            	0           	0           	                	;
 n167            	0           	0           	                	;
 n168            	-5          	0           	                	;
 n169            	0           	0           	                	;
 n170            	0           	0           	                	;
 n171            	0           	0           	                	;
 n172            	0           	0           	                	;
 n173            	0           	0           	                	;
 n174            	0           	0           	                	;
 n175            	0           	0           	                	;
 n176            	0           	0           	                	;
 n177            	0           	0           	                	;
 n178            	0           	0           	                	;
 n179            	0           	0           	                	;
 n180            	0           	0           	                	;
 n181            	0           	0           	                	;
 n182            	0           	0           	                	;
 n183            	0           	0           	                	;
 n184            	0           	0           	                	;
 n185            	0           	0           	                	;
 n186            	0           	0           	                	;
 n187            	0           	0           	                	;
 n188            	0           	0           	                	;
 n189            	0           	0           	                	;
 n190            	0           	0           	                	;
 n191            	0           	0           	                	;
 n192            	0           	0           	                	;
 n193            	0           	0           	                	;
 n194            	0           	0           	                	;
 n195            	0           	0           	                	;
 n196            	0           	0           	                	;
 n197            	0           	0           	                	;
 n198            	0           	0           	                	;
 n199            	0           	0           	                	;
 n200            	0           	0           	                	;
 n201            	0           	0           	                	;
 n202            	0           	0           	                	;
 n203            	0           	0           	                	;
 n204            	0           	0           	                	;
 n205            	0           	0           	                	;
 n206            	0           	0           	                	;
 n207            	0           	0           	                	;
 n208            	0           	0           	                	;
 n209            	0           	0           	                	;
 n210            	0           	0           	                	;
 n211            	0           	0           	                	;
 n212            	0           	0           	                	;
 n213            	0           	0           	                	;
 n214            	0           	0           	                	;
 n215            	0           	0           	                	;
 n216            	0           	0           	                	;
 n217            	0           	0           	                	;
 n218            	0           	0           	                	;
 n219            	0           	0           	                	;
 n220            	0           	0           	                	;
 n221            	0           	0           	                	;
 n222            	0           	0           	                	;
 n223            	0           	0           	                	;
 n224            	0           	0           	                	;
 n225            	0           	0           	                	;
 n226            	0           	0           	                	;
 n227            	0           	0           	                	;
 n228            	0           	0           	                	;
 n229            	0           	0           	                	;
 n230            	0           	0           	                	;
 n231            	0           	0           	                	;
 n232            	0           	0           	                	;
 n233            	0           	0           	                	;
 n234            	0           	0           	                	;
 n235            	0           	0           	                	;
 n236            	0           	0           	                	;
 n237            	0           	0           	                	;
 n238            	0           	0           	                	;
 n239            	0           	0           	                	;
 n240            	0           	0           	                	;
 n241            	0           	0           	                	;
 n242            	0           	0           	                	;
 n243            	0           	0           	                	;
 n244            	0           	0           	                	;
 n245            	0           	0           	                	;
 n246            	0           	0           	                	;
 n247            	0           	0           	                	;
 n248            	0           	0           	                	;
 n249            	0           	0           	                	;
 n250            	0           	0           	                	;
 n251            	0           	0           	                	;
 n252            	0           	0           	                	;
 n253            	0           	0           	                	;
 n254            	0           	0           	                	;
 n255            	0           	0           	                	;
 n256            	0           	0           	                	;
 n257            	0           	0           	                	;
 n258            	0           	0           	                	;
 n259            	0           	0           	                	;
 n260            	0           	0           	                	;
 n261            	0           	0           	                	;
 n262            	0           	0           	                	;
 n263            	0           	0           	                	;
 n264            	0           	0           	                	;
 n265            	0           	0           	                	;
 n266            	0           	0           	                	;
 n267            	0           	0           	                	;
 n268            	0           	0           	                	;
 n269            	0           	0           	                	;
 n270            	0           	0           	                	;
 n271            	0           	0           	                	;
 n272            	0           	0           	                	;
 n273            	0           	0           	                	;
 n274            	0           	0           	                	;
 n275            	0           	0           	                	;
 n276            	0           	0           	                	;
 n277            	0           	0           	                	;
 n278            	0           	0           	                	;
 n279            	0           	0           	                	;
 n280            	0           	0           	                	;
 n281            	0           	0           	                	;
 n282            	0           	0           	                	;
 n283            	0           	0           	                	;
 n284            	0           	0           	                	;
 n285            	0           	0           	                	;
 n286            	0           	0           	                	;
 n287            	0           	0           	                	;
 n288            	0           	0           	                	;
 n289            	0           	0           	                	;
 n290            	0           	0           	                	;
 n291            	0           	0           	                	;
 n292            	0           	0           	                	;
 n293            	0           	0           	                	;
 n294            	0           	0           	                	;
 n295            	0           	0           	                	;
 n296            	0           	0           	                	;
 n297            	0           	0           	                	;
 n298            	0           	0           	                	;
 n299            	0           	0           	                	;
 n300            	0           	0           	                	;
 n301            	0           	0           	                	;
 n302            	0           	0           	                	;
 n303            	0           	0           	                	;
 n304            	0           	0           	                	;
 n305            	0           	0           	                	;
 n306            	0           	0           	                	;
 n307            	0           	0           	                	;
 n308            	0           	0           	                	;
 n309            	0           	0           	                	;
 n310            	0           	0           	                	;
 n311            	0           	0           	                	;
 n312            	0           	0           	                	;
 n313            	0           	0           	                	;
 n314            	0           	0           	                	;

[RESERVOIRS]
;ID              	Head        	Pattern         

[TANKS]
;ID              	Elevation   	InitLevel   	MinLevel    	MaxLevel    	Diameter    	MinVol      	VolCurve

[PIPES]
;ID              	Node1           	Node2           	Length      	Diameter    	Roughness   	MinorLoss   	Status
 p1              	n1              	n2              	12          	12          	100         	0           	Open  	;
 p2              	n3              	n4              	12          	12          	100         	0           	Open  	;
 p3              	n5              	n6              	67.57       	12          	100         	0           	Open  	;
 p4              	n6              	n7              	34.06       	12          	100         	0           	Open  	;
 p5              	n8              	n1              	67.57       	12          	100         	0           	Open  	;
 p6              	n1              	n9              	34.06       	12          	100         	0           	Open  	;
 p7              	n10             	n4              	26.62       	12          	100         	0           	Open  	;
 p8              	n4              	n11             	34.06       	12          	100         	0           	Open  	;
 p9              	n12             	n13             	81.03       	12          	100         	0           	Open  	;
 p10             	n13             	n14             	192.5       	12          	100         	0           	Open  	;
 p11             	n14             	n14             	0           	12          	100         	0           	Open  	;
 p12             	n14             	n15             	122.7       	12          	100         	0           	Open  	;
 p13             	n15             	n16             	8.958       	12          	100         	0           	Open  	;
 p14             	n16             	n17             	62.54       	12          	100         	0           	Open  	;
 p15             	n17             	n18             	11.7        	12          	100         	0           	Open  	;
 p16             	n19             	n20             	131.6       	12          	100         	0           	Open  	;
 p17             	n21             	n22             	12          	12          	100         	0           	Open  	;
 p18             	n23             	n24             	80.11       	12          	100         	0           	Open  	;
 p19             	n25             	n26             	11.73       	12          	100         	0           	Open  	;
 p20             	n27             	n28             	85.26       	12          	100         	0           	Open  	;
 p21             	n28             	n29             	12.41       	12          	100         	0           	Open  	;
 p22             	n29             	n30             	11.43       	12          	100         	0           	Open  	;
 p23             	n30             	n31             	64.42       	12          	100         	0           	Open  	;
 p24             	n31             	n32             	62          	12          	100         	0           	Open  	;
 p25             	n33             	n34             	49.8        	12          	100         	0           	Open  	;
 p26             	n34             	n35             	18.37       	12          	100         	0           	Open  	;
 p27             	n35             	n36             	18.37       	12          	100         	0           	Open  	;
 p28             	n36             	n37             	22.66       	12          	100         	0           	Open  	;
 p29             	n37             	n38             	15.03       	12          	100         	0           	Open  	;
 p30             	n38             	n39             	40.35       	12          	100         	0           	Open  	;
 p31             	n39             	n40             	0.000354    	12          	100         	0           	Open  	;
 p32             	n20             	n41             	34.06       	12          	100         	0           	Open  	;
 p33             	n42             	n33             	12.01       	12          	100         	0           	Open  	;
 p34             	n43             	n27             	12          	12          	100         	0           	Open  	;
 p35             	n31             	n44             	11.97       	12          	100         	0           	Open  	;
 p36             	n44             	n44             	0           	12          	100         	0           	Open  	;
 p37             	n44             	n45             	116         	12          	100         	0           	Open  	;
 p38             	n45             	n45             	0           	12          	100         	0           	Open  	;
 p39             	n45             	n45             	0           	12          	100         	0           	Open  	;
 p40             	n45             	n46             	11.9        	12          	100         	0           	Open  	;
 p41             	n45             	n45             	0           	12          	100         	0           	Open  	;
 p42             	n32             	n47             	12          	12          	100         	0           	Open  	;
 p43             	n48             	n49             	12.09       	12          	100         	0           	Open  	;
 p44             	n50             	n51             	12.01       	12          	100         	0           	Open  	;
 p45             	n52             	n53             	12.01       	12          	100         	0           	Open  	;
 p46             	n54             	n55             	12.01       	12          	100         	0           	Open  	;
 p47             	n56             	n51             	70.99       	12          	100         	0           	Open  	;
 p48             	n50             	n57             	28.71       	12          	100         	0           	Open  	;
 p49             	n57             	n33             	27.71       	12          	100         	0           	Open  	;
 p50             	n42             	n27             	63.76       	12          	100         	0           	Open  	;
 p51             	n58             	n59             	54.39       	12          	100         	0           	Open  	;
 p52             	n60             	n61             	64.31       	12          	100         	0           	Open  	;
 p53             	n61             	n62             	47.67       	12          	100         	0           	Open  	;
 p54             	n63             	n64             	118.4       	12          	100         	0           	Open  	;
 p55             	n65             	n66             	63.44       	12          	100         	0           	Open  	;
 p56             	n66             	n67             	63.38       	12          	100         	0           	Open  	;
 p57             	n68             	n69             	60.19       	12          	100         	0           	Open  	;
 p58             	n69             	n55             	52.05       	12          	100         	0           	Open  	;
 p59             	n69             	n70             	12.01       	12          	100         	0           	Open  	;
 p60             	n70             	n71             	71.03       	12          	100         	0           	Open  	;
 p61             	n51             	n70             	150.9       	12          	100         	0           	Open  	;
 p62             	n70             	n72             	67.09       	12          	100         	0           	Open  	;
 p63             	n73             	n74             	36.77       	12          	100         	0           	Open  	;
 p64             	n74             	n75             	33.87       	12          	100         	0           	Open  	;
 p65             	n75             	n76             	34.78       	12          	100         	0           	Open  	;
 p66             	n76             	n77             	34.85       	12          	100         	0           	Open  	;
 p67             	n78             	n79             	191.6       	12          	100         	0           	Open  	;
 p68             	n79             	n80             	44.36       	12          	100         	0           	Open  	;
 p69             	n81             	n82             	56.06       	12          	100         	0           	Open  	;
 p70             	n82             	n78             	18.47       	12          	100         	0           	Open  	;
 p71             	n83             	n84             	54.11       	12          	100         	0           	Open  	;
 p72             	n84             	n85             	32.89       	12          	100         	0           	Open  	;
 p73             	n85             	n86             	83.46       	12          	100         	0           	Open  	;
 p74             	n87             	n88             	31.48       	12          	100         	0           	Open  	;
 p75             	n88             	n89             	28.38       	12          	100         	0           	Open  	;
 p76             	n90             	n91             	52.2        	12          	100         	0           	Open  	;
 p77             	n91             	n92             	11.72       	12          	100         	0           	Open  	;
 p78             	n92             	n93             	62.17       	12          	100         	0           	Open  	;
 p79             	n94             	n95             	119.2       	12          	100         	0           	Open  	;
 p80             	n95             	n96             	67.54       	12          	100         	0           	Open  	;
 p81             	n96             	n97             	15.02       	12          	100         	0           	Open  	;
 p82             	n97             	n82             	18.05       	12          	100         	0           	Open  	;
 p83             	n82             	n98             	27.95       	12          	100         	0           	Open  	;
 p84             	n98             	n99             	8.403       	12          	100         	0           	Open  	;
 p85             	n99             	n100            	48.33       	12          	100         	0           	Open  	;
 p86             	n100            	n101            	48          	12          	100         	0           	Open  	;
 p87             	n101            	n102            	38.87       	12          	100         	0           	Open  	;