[TITLE]
prueba

[JUNCTIONS]
n1                	0                 
n2                	0                 
n3                	0                 
n4                	0                 
n5                	0                 
n6                	0                 
n7                	0                 
n8                	0                 
n9                	0                 
n10               	0                 
n11               	0                 
n12               	0                 
n13               	0                 
n14               	0                 
n15               	0                 
n16               	0                 
n17               	0                 
n18               	0                 
n19               	0                 
n20               	0                 
n21               	0                 
n22               	0                 
n23               	0                 
n24               	0                 
n25               	0                 
n26               	0                 
n27               	0                 
n28               	0                 
n29               	0                 
n30               	0                 
n31               	0                 
n32               	0                 
n33               	0                 
n34               	0                 
n35               	0                 
n36               	0                 
n37               	0                 
n38               	0                 
n39               	0                 
n40               	0                 
n41               	0                 
n42               	0                 
n43               	0                 
n44               	0                 
n45               	0                 
n46               	0                 
n47               	0                 
n48               	0                 
n49               	0                 
n50               	0                 
n51               	0                 
n52               	0                 
n53               	0                 
n54               	0                 
n55               	0                 
n56               	0                 
n57               	0                 
n58               	0                 
n59               	0                 
n60               	0                 
n61               	0                 
n62               	0                 
n63               	0                 
n64               	0                 
n65               	0                 
n66               	0                 
n67               	0                 
n68               	0                 
n69               	0                 
n70               	0                 
n71               	0                 
n72               	0                 
n73               	0                 
n74               	0                 
n75               	0                 
n76               	0                 
n77               	0                 
n78               	0                 
n79               	0                 
n80               	0                 
n81               	0                 
n82               	0                 
n83               	0                 
n84               	0                 
n85               	0                 
n86               	0                 
n87               	0                 
n88               	0                 
n89               	0                 
n90               	0                 
n91               	0                 
n92               	0                 
n93               	0                 
n94               	0                 
n95               	0                 
n96               	0                 
n97               	0                 
n98               	0                 
n99               	0                 
n100              	0                 
n101              	0                 
n102              	0                 
n103              	0                 
n104              	0                 
n105              	0                 
n106              	0                 
n107              	0                 
n108              	0                 
n109              	0                 
n110              	0                 
n111              	0                 
n112              	0                 
n113              	0                 
n114              	0                 
n115              	0                 
n116              	0                 
n117              	0                 
n118              	0                 
n119              	0                 
n120              	0                 
n121              	0                 
n122              	0                 
n123              	0                 
n124              	0                 
n125              	0                 
n126              	0                 
n127              	0                 
n128              	0                 
n129              	0                 
n130              	0                 
n131              	0                 
n132              	0                 
n133              	0                 
n134              	0                 
n135              	0                 
n136              	0                 
n137              	0                 
n138              	0                 
n139              	0                 
n140              	0                 
n141              	0                 
n142              	0                 
n143              	0                 
n144              	0                 
n145              	0                 


[PIPES]
p1                	n1                	n2                	204.7     
p2                	n2                	n3                	52.2      
p3                	n4                	n5                	64.01     
p4                	n6                	n7                	73.89     
p5                	n5                	n8                	101.6     
p6                	n9                	n8                	67.57     
p7                	n10               	n11               	63.99     
p8                	n12               	n13               	142.2     
p9                	n14               	n15               	67.14     
p10               	n15               	n16               	12.11     
p11               	n2                	n17               	34.06     
p12               	n17               	n16               	41.71     
p13               	n16               	n18               	44.98     
p14               	n18               	n19               	113.7     
p15               	n19               	n20               	74.01     
p16               	n18               	n21               	34.23     
p17               	n21               	n8                	64.01     
p18               	n3                	n22               	101.7     
p19               	n23               	n24               	176.6     
p20               	n25               	n26               	81.03     
p21               	n26               	n27               	192.5     
p22               	n27               	n28               	205.9     
p23               	n29               	n26               	11.23     
p24               	n27               	n30               	9.049     
p25               	n30               	n31               	99.39     
p26               	n32               	n30               	124.4     
p27               	n30               	n33               	64        
p28               	n33               	n34               	64.03     
p29               	n35               	n36               	64        
p30               	n37               	n38               	73.89     
p31               	n38               	n39               	7.138     
p32               	n40               	n41               	100.6     
p33               	n42               	n43               	100.7     
p34               	n33               	n44               	100.8     
p35               	n31               	n45               	172       
p36               	n46               	n45               	11.81     
p37               	n45               	n47               	125.1     
p38               	n48               	n49               	71.03     
p39               	n47               	n48               	11.99     
p40               	n48               	n50               	52.06     
p41               	n50               	n51               	98.83     
p42               	n52               	n53               	12.01     
p43               	n54               	n55               	49.05     
p44               	n55               	n56               	73.97     
p45               	n56               	n43               	11.95     
p46               	n57               	n44               	64        
p47               	n44               	n43               	64.02     
p48               	n43               	n41               	63.98     
p49               	n41               	n58               	131       
p50               	n55               	n59               	121.2     
p51               	n60               	n61               	8.529     
p52               	n39               	n62               	153.9     
p53               	n62               	n63               	27.94     
p54               	n63               	n64               	72.33     
p55               	n65               	n66               	150.9     
p56               	n67               	n68               	52.04     
p57               	n68               	n69               	60        
p58               	n70               	n71               	66.99     
p59               	n72               	n71               	44.75     
p60               	n71               	n73               	156.4     
p61               	n70               	n74               	243.2     
p62               	n68               	n75               	289.6     
p63               	n76               	n20               	41.85     
p64               	n20               	n7                	165.5     
p65               	n20               	n23               	7.061     
p66               	n77               	n78               	48.54     
p67               	n67               	n79               	11.42     
p68               	n38               	n80               	159.5     
p69               	n80               	n81               	27.95     
p70               	n81               	n82               	219.8     
p71               	n65               	n83               	92.77     
p72               	n83               	n84               	64.03     
p73               	n84               	n85               	75.66     
p74               	n86               	n87               	60.47     
p75               	n87               	n88               	45.98     
p76               	n89               	n83               	123.4     
p77               	n90               	n84               	125.6     
p78               	n91               	n85               	112.2     
p79               	n85               	n92               	75.58     
p80               	n93               	n87               	110.2     
p81               	n94               	n95               	233.5     
p82               	n96               	n97               	60.44     
p83               	n51               	n59               	68.43     
p84               	n59               	n98               	66.77     
p85               	n99               	n58               	12.01     
p86               	n100              	n80               	47.24     
p87               	n80               	n101              	7.149     
p88               	n102              	n103              	11.7      
p89               	n103              	n75               	52.3      
p90               	n75               	n74               	59.69     
p91               	n74               	n73               	130.4     
p92               	n104              	n105              	126.8     
p93               	n105              	n95               	11.95     
p94               	n95               	n106              	148       
p95               	n107              	n98               	144.3     
p96               	n108              	n109              	130.3     
p97               	n110              	n111              	135.8     
p98               	n112              	n67               	41.86     
p99               	n113              	n103              	144.9     
p100              	n114              	n115              	69.28     
p101              	n115              	n116              	144       
p102              	n13               	n117              	209.4     
p103              	n15               	n117              	78.76     
p104              	n117              	n118              	12.02     
p105              	n118              	n119              	135.3     
p106              	n119              	n120              	25.4      
p107              	n121              	n119              	11.98     
p108              	n122              	n123              	34.06     
p109              	n123              	n17               	12        
p110              	n124              	n125              	52.04     
p111              	n125              	n126              	60        
p112              	n126              	n127              	66.99     
p113              	n128              	n126              	11.95     
p114              	n68               	n125              	11.92     
p115              	n73               	n104              	19.59     
p116              	n104              	n129              	190.3     
p117              	n130              	n131              	19.6      
p118              	n130              	n129              	44.68     
p119              	n132              	n111              	60.44     
p120              	n111              	n109              	71.84     
p121              	n109              	n133              	66.01     
p122              	n109              	n59               	28.25     
p123              	n134              	n97               	28.1      
p124              	n97               	n97               	0         
p125              	n97               	n135              	10.55     
p126              	n136              	n81               	68.43     
p127              	n81               	n137              	7.143     
p128              	n137              	n114              	11.33     
p129              	n114              	n138              	52.71     
p130              	n138              	n139              	27.95     
p131              	n138              	n140              	59.37     
p132              	n141              	n74               	27.95     
p133              	n141              	n92               	123.9     
p134              	n92               	n73               	30.43     
p135              	n142              	n92               	19.83     
p136              	n142              	n86               	73.7      
p137              	n86               	n85               	20.37     
p138              	n142              	n88               	109.9     
p139              	n88               	n105              	28.63     
p140              	n88               	n143              	140.3     
p141              	n45               	n56               	128       
p142              	n56               	n99               	185.5     
p143              	n99               	n144              	9.004     
p144              	n39               	n113              	11.36     
p145              	n113              	n145              	185.2     


[COORDINATES]
n1                	386011.8050594211 	806165.9844968367 
n2                	385808.9088381503 	806192.7703767302 
n3                	385757.1964756225 	806199.8926322344 
n4                	385757.1964738152 	806199.8926191051 
n5                	385693.7879959419 	806208.6207063287 
n6                	385693.7943016967 	806208.6198383516 
n7                	385620.5817418736 	806218.5911806569 
n8                	385680.0134449354 	806107.9285845648 
n9                	385689.2645170362 	806174.8583315006 
n10               	385680.0134449346 	806107.9285845584 
n11               	385671.3372659513 	806044.5259649011 
n12               	386015.956397415  	806087.9195851706 
n13               	385875.0572540542 	806107.2882160676 
n14               	385875.0607711723 	806107.313799633  
n15               	385808.5407238756 	806116.4318779155 
n16               	385796.5459883397 	806118.1213213236 
n17               	385804.1649844071 	806159.0440294148 
n18               	385771.7166089398 	806081.0592724996 
n19               	385671.3183061465 	806044.3874129772 
n20               	385598.0175844176 	806054.6405806826 
n21               	385743.4227518053 	806099.2003914686 
n22               	385743.6264160016 	806099.1207549303 
n23               	385591.0246287884 	806055.6187422221 
n24               	385615.0234288902 	806230.5548797308 
n25               	385615.0243517964 	806230.5547527978 
n26               	385695.3264037588 	806219.7498038882 
n27               	385886.1023615137 	806194.0801674792 
n28               	386013.6036929787 	806257.2700853793 
n29               	385693.7977058969 	806208.6193747092 
n30               	385886.8446267451 	806203.0983639091 
n31               	385900.3981191968 	806301.5582368102 
n32               	386009.3604199016 	806183.3082903897 
n33               	385823.2750279021 	806210.3948402285 
n34               	385759.8419100652 	806219.1114055286 
n35               	385759.8419100652 	806219.1114055284 
n36               	385696.4401229171 	806227.8385635687 
n37               	385696.4403611328 	806227.8385307788 
n38               	385623.255584298  	806238.018829041  
n39               	385616.1863071308 	806239.0041396286 
n40               	385696.4403611474 	806227.8385307768 
n41               	385710.1639580843 	806327.5388711029 
n42               	385759.8419075891 	806219.1114058695 
n43               	385773.5593617855 	806318.8808425461 
n44               	385836.9867246891 	806310.2184492615 
n45               	385902.0889786642 	806313.2421808882 
n46               	385900.3981194119 	806301.5582383723 
n47               	385867.7678177917 	806415.9936932199 
n48               	385858.235987389  	806423.2679971313 
n49               	385901.3286545107 	806479.7343791683 
n50               	385816.8499115688 	806454.8432111768 
n51               	385738.2787404109 	806514.7885308994 
n52               	385816.8497849727 	806454.8430452456 
n53               	385809.5638600999 	806445.2932814162 
n54               	385809.5638593494 	806445.2932804327 
n55               	385785.3666802126 	806403.9807695542 
n56               	385775.2561558499 	806330.7093437504 
n57               	385900.3981191969 	806301.5582368105 
n58               	385619.1970396817 	806414.6264028959 
n59               	385689.6432911802 	806466.9798676929 
n60               	385615.0234285183 	806230.5548770285 
n61               	385616.1863071307 	806239.0041396286 
n62               	385575.4729516423 	806382.2838347904 
n63               	385558.5753708544 	806404.5368000718 
n64               	385505.3662783184 	806452.9984191478 
n65               	385505.366278319  	806452.9984191471 
n66               	385386.5205483252 	806545.966503347  
n67               	385579.7131352795 	806057.1595186202 
n68               	385528.1615887381 	806064.2580708849 
n69               	385468.7220303722 	806072.4427877357 
n70               	385468.7217383839 	806072.4402403238 
n71               	385402.3610048733 	806081.5738734488 
n72               	385396.2583875254 	806037.244095128  
n73               	385371.335572513  	806231.0133785409 
n74               	385476.1312552767 	806308.5944405278 
n75               	385524.0694741037 	806344.1547024769 
n76               	385592.3086872092 	806013.1812620404 
n77               	385591.0246284064 	806055.6187394373 
n78               	385584.4268484652 	806007.5269634952 
n79               	385591.0223673434 	806055.6022583582 
n80               	385581.2214862053 	806386.5360074244 
n81               	385564.3121931588 	806408.7932825149 
n82               	385395.2714194335 	806548.4764394085 
n83               	385430.8891570059 	806400.6139058699 
n84               	385382.9408312306 	806358.1763010686 
n85               	385317.3749491715 	806321.2835389107 
n86               	385300.6837094675 	806309.6055121734 
n87               	385253.8996004955 	806271.2915767533 
n88               	385233.9658868015 	806232.570952096  
n89               	385352.0728754114 	806495.6269772158 
n90               	385302.8332622891 	806454.8548802427 
n91               	385245.81693917   	806407.6433993266 
n92               	385358.8946839816 	806258.7806170052 
n93               	385183.6542572714 	806356.1705559439 
n94               	385056.5296811446 	806250.9070248799 
n95               	385217.3236474929 	806206.6197835159 
n96               	385781.2440646785 	806571.2976919275 
n97               	385744.6616316874 	806523.1834828082 
n98               	385636.0265882182 	806427.2051273459 
n99               	385628.8463125448 	806421.7730652181 
n100              	385619.1970396723 	806414.626402889  
n101              	385575.4737327723 	806382.2844125899 
n102              	385575.4729516421 	806382.2838347904 
n103              	385566.1709209711 	806375.1824415801 
n104              	385353.4193554929 	806223.0831413016 
n105              	385229.0599413756 	806204.3665465947 
n106              	385095.8628962995 	806283.3855279086 
n107              	385536.0331177921 	806529.9982495973 
n108              	385577.9662654332 	806578.3748374494 
n109              	385672.1625534699 	806489.1768087141 
n110              	385620.7397371244 	806630.1018121091 
n111              	385722.3205870112 	806540.2281531687 
n112              	385574.1816555019 	806015.6680386375 
n113              	385604.9364847708 	806240.584706169  
n114              	385549.4804020289 	806397.788713226  
n115              	385498.3626781905 	806444.0562933647 
n116              	385385.0325449727 	806532.8564843184 
n117              	385759.9684110964 	806056.3627573811 
n118              	385750.6271895435 	806048.7997864587 
n119              	385621.5362160775 	806039.2581433842 
n120              	385596.3773640006 	806042.7508123302 
n121              	385623.1633282193 	806051.123241123  
n122              	385820.5986388036 	806191.1627528258 
n123              	385816.0507222367 	806157.4079760942 
n124              	385578.0803561567 	806045.2858847504 
n125              	385526.5367245583 	806052.4521078127 
n126              	385467.091940696  	806060.5984312925 
n127              	385400.7258653088 	806069.6932497616 
n128              	385468.7216808104 	806072.4402482479 
n129              	385376.8518501442 	806039.984792557  
n130              	385382.942291354  	806084.2465896119 
n131              	385402.3610047685 	806081.5738726844 
n132              	385758.9831179826 	806588.2830128755 
n133              	385619.3189736908 	806449.6236819108 
n134              	385722.3205870142 	806540.2281531727 
n135              	385738.2787404186 	806514.7885309098 
n136              	385619.2612273987 	806449.5804259159 
n137              	385558.5762514262 	806404.5356521265 
n138              	385507.1430883264 	806366.3925818621 
n139              	385524.0694741091 	806344.1547024808 
n140              	385459.4145720176 	806331.090543191  
n141              	385459.4586735763 	806331.0311945047 
n142              	385341.5874621286 	806249.1031976335 
n143              	385117.2491194918 	806301.1848128527 
n144              	385636.081542485  	806427.1317845681 
n145              	385579.7076114823 	806057.1602788646 


[VERTICES]
p1                	385863.5642089356 	806186.7004618099 
p1                	385820.5987315648 	806191.1627400689 
p8                	385886.9566280297 	806105.6524745225 
p12               	385800.5359328983 	806132.6728825466 
p13               	385785.6382460831 	806096.7050407681 
p14               	385729.5812526644 	806047.203312662  
p14               	385704.4333702029 	806039.7553398226 
p15               	385623.1633282193 	806051.123241123  
p16               	385758.822979122  	806093.1786123974 
p19               	385591.0246287884 	806055.6187422221 
p22               	386007.7569427188 	806177.8538823796 
p22               	386015.0574945036 	806183.0452213866 
p26               	385955.8549465577 	806190.6626350813 
p26               	385943.8977822268 	806195.2449076437 
p27               	385875.1502637034 	806204.7103978687 
p27               	385865.894740899  	806205.9846913525 
p28               	385811.5539840841 	806211.9908870678 
p29               	385748.1521420919 	806220.7204840239 
p35               	385979.7716595161 	806290.7180443263 
p35               	385981.4623179561 	806302.3253932364 
p37               	385911.5696072578 	806382.565955317  
p43               	385786.9786901191 	806415.690851117  
p45               	385775.2561558499 	806330.7093437504 
p49               	385698.5975578441 	806329.1185159625 
p49               	385684.2467162845 	806333.5875897511 
p49               	385669.8905446882 	806346.124114956  
p50               	385751.0775945022 	806408.8641489211 
p50               	385733.9301421621 	806415.4446408334 
p50               	385720.2257768434 	806427.6728200424 
p52               	385618.2734081738 	806254.1686328087 
p52               	385617.5426258643 	806291.5893859956 
p52               	385605.3899934074 	806336.0127578659 
p52               	385580.5051525265 	806375.6588531127 
p54               	385548.0443115733 	806418.2654672858 
p60               	385405.0943904546 	806101.5128448199 
p60               	385406.3783491584 	806139.5592073335 
p60               	385396.1831973558 	806176.2366272288 
p61               	385495.1057187618 	806264.1142880018 
p61               	385490.9954743722 	806288.5525123219 
p62               	385554.5610723662 	806256.047418752  
p62               	385553.012887227  	806291.5051137052 
p62               	385539.244858125  	806324.2172885523 
p68               	385625.4205630533 	806253.7491673856 
p68               	385624.6615325542 	806292.6164095154 
p68               	385611.9962511324 	806338.9137453752 
p68               	385586.3046125182 	806379.8452167242 
p70               	385553.328413026  	806423.1198342639 
p70               	385489.052586208  	806474.8852428099 
p71               	385498.3626781905 	806444.0562933647 
p71               	385489.5070951481 	806433.7223845873 
p71               	385466.9429993054 	806425.383464448  
p72               	385382.9408312306 	806358.1763010686 
p73               	385373.6369061443 	806350.5951430872 
p73               	385344.7590563764 	806338.4987178053 
p74               	385300.6837094675 	806309.6055121734 
p75               	385239.9415868701 	806259.8606348286 
p75               	385233.9658868015 	806232.570952096  
p79               	385346.2250929026 	806285.8187705923 
p81               	385094.0501306043 	806201.4085557589 
p81               	385146.8902129969 	806166.984422334  
p81               	385189.123492178  	806152.8638141117 
p81               	385197.5676270498 	806156.1326003964 
p81               	385211.041278218  	806179.9217142903 
p83               	385730.9966597148 	806505.2438056165 
p83               	385710.9987727303 	806484.6409642813 
p84               	385679.7583860446 	806460.1549435339 
p92               	385353.4193554929 	806223.0831413016 
p92               	385292.4224242045 	806205.6342043019 
p94               	385188.9619108318 	806212.0649191637 
p94               	385152.4656369172 	806229.2706211523 
p94               	385120.1149838356 	806254.2461237946 
p95               	385599.6656064029 	806475.9948964377 
p96               	385651.0713453096 	806516.3533490375 
p96               	385672.1625534699 	806489.1768087141 
p97               	385645.2582186147 	806609.2919630291 
p97               	385692.0601112292 	806563.3065177323 
p99               	385606.8994345805 	806254.8361695712 
p99               	385606.2136064056 	806289.9549820141 
p99               	385594.8768028884 	806331.396129868  
p99               	385571.2758989403 	806368.9966791462 
p100              	385539.6288878941 	806410.5344357793 
p102              	385862.3009716039 	806014.4988434315 
p102              	385801.2567210383 	806022.8925312486 
p102              	385778.6610630652 	806034.7114752948 
p103              	385795.6890304019 	806089.2807335852 
p103              	385780.2689345211 	806072.5114017534 
p105              	385735.5586283488 	806036.5997664169 
p105              	385702.5524117824 	806028.0110980111 
p108              	385816.0507222367 	806157.4079760942 
p116              	385376.65771017   	806171.3558858485 
p116              	385386.1555823547 	806142.5084827778 
p116              	385386.781010651  	806112.1441767687 
p116              	385382.9423549303 	806084.2470516474 
p120              	385714.953611969  	806530.7766502042 
p120              	385694.067639936  	806507.2237697563 
p121              	385662.5709941289 	806482.0224577868 
p124              	385744.6616316874 	806523.1834828082 
p133              	385395.6049183546 	806283.6790903746 
p136              	385329.6032854692 	806275.4616157205 
p137              	385300.6837094675 	806309.6055121734 
p138              	385294.9624302663 	806234.3153656909 
p139              	385233.9658868015 	806232.570952096  
p140              	385197.7084804318 	806238.7026389361 
p140              	385167.0709004805 	806253.1463345179 
p140              	385139.5422629194 	806274.3991221637 
p142              	385775.2561558499 	806330.7093437504 
p142              	385699.5837125558 	806341.102979052  
p142              	385688.8310954486 	806344.9761240219 
p142              	385679.5837417641 	806353.2536558746 
p143              	385628.8463125448 	806421.7730652181 

[END]
